/*---------------------------------------------------------------------------*\
| =========                 |                                                 |
| \\      /  F ield         | OpenFOAM: The Open Source CFD Toolbox           |
|  \\    /   O peration     | Version:  2412                                  |
|   \\  /    A nd           | Website:  www.openfoam.com                      |
|    \\/     M anipulation  |                                                 |
\*---------------------------------------------------------------------------*/
Build  : _45e7c4a0-20241224 OPENFOAM=2412 version=2412
Arch   : "LSB;label=32;scalar=64"
Exec   : snappyHexMesh -overwrite -parallel
Date   : Feb 01 2025
Time   : 14:26:17
Host   : MyComputer
PID    : 4805
I/O    : uncollated
Case   : /mnt/d/desktop/OpenFOAM/TasakiModel_Mesh_Old
nProcs : 8
Hosts  :
(
    (MyComputer 8)
)
Pstream initialized with:
    floatTransfer      : false
    maxCommsSize       : 0
    nProcsSimpleSum    : 0
    nonBlockingExchange: 0 (tuning: 0)
    exchange algorithm : 0
    commsType          : nonBlocking
    polling iterations : 0
trapFpe: Floating point exception trapping enabled (FOAM_SIGFPE).
fileModificationChecking : Monitoring run-time modified files using timeStampMaster (fileModificationSkew 5, maxFileModificationPolls 20)
allowSystemOperations : Allowing user-supplied system call operations

// * * * * * * * * * * * * * * * * * * * * * * * * * * * * * * * * * * * * * //
Create time

Create mesh for time = 0

Read mesh in = 0.04 s

Overall mesh bounding box  : (-16 -16 0) (96 0 16)
Relative tolerance         : 1e-06
Absolute matching distance : 0.000114262854857

Reading refinement surfaces.
Read refinement surfaces in = 0.58 s

Reading refinement shells.
Refinement level 6 for all cells inside Lv6_Ground
Refinement level 2 for all cells inside Lv2
Refinement level 3 for all cells inside Lv3
Refinement level 5 for all cells inside Lv5
Refinement level 7 for all cells inside Lv7-1
Refinement level 7 for all cells inside Lv7-2
Refinement level 11 for all cells inside FTire_Patch
Refinement level 11 for all cells inside RTire_Patch
Read refinement shells in = 0 s

Setting refinement level of surface to be consistent with shells.
For geometry Bo.stl detected 0 uncached triangles out of 76226
For geometry FrBr.stl detected 0 uncached triangles out of 496
For geometry FrSUS.stl detected 0 uncached triangles out of 1342
For geometry FT.stl detected 3464 uncached triangles out of 61564
For geometry FW.stl detected 0 uncached triangles out of 38354
For geometry RrBr.stl detected 0 uncached triangles out of 496
For geometry RrSUS.stl detected 0 uncached triangles out of 2240
For geometry RT.stl detected 2560 uncached triangles out of 61522
For geometry RW.stl detected 0 uncached triangles out of 19772
For geometry SW.stl detected 0 uncached triangles out of 4372
Checked shell refinement in = 1.09 s

Reading features.
Read edgeMesh Bo.eMesh
    points      : 3459
    edges       : 3483
    boundingBox : (0.306574910879 -0.274560391903 0.059609990567) (1.78898394108 0.274560391903 0.969260513783)

Refinement level according to distance to "Bo.eMesh" (3459 points, 3483 edges).
    level 9 for all cells within 0 metre.
Read edgeMesh FrBr.eMesh
    points      : 248
    edges       : 248
    boundingBox : (-0.0900000035763 -0.564999997616 0.107000000775) (0.0900000035763 -0.560000002384 0.287000000477)

Refinement level according to distance to "FrBr.eMesh" (248 points, 248 edges).
    level 9 for all cells within 0 metre.
Read edgeMesh FrSUS.eMesh
    points      : 663
    edges       : 667
    boundingBox : (-0.0772766470909 -0.535000026226 0.0980164036155) (0.16750459373 -0.184479296207 0.551907896996)

Refinement level according to distance to "FrSUS.eMesh" (663 points, 667 edges).
    level 9 for all cells within 0 metre.
Read edgeMesh FT.eMesh
    points      : 2498
    edges       : 2515
    boundingBox : (-0.147558301687 -0.655974626541 0.000161037503858) (0.147558301687 -0.467851787806 0.344558387995)

Refinement level according to distance to "FT.eMesh" (2498 points, 2515 edges).
    level 9 for all cells within 0 metre.
Read edgeMesh FW.eMesh
    points      : 4485
    edges       : 4652
    boundingBox : (-0.822909414768 -0.704274475574 0.0560000017285) (-0.210409402847 0.704274475574 0.351872086525)

Refinement level according to distance to "FW.eMesh" (4485 points, 4652 edges).
    level 10 for all cells within 0 metre.
Read edgeMesh RrBr.eMesh
    points      : 248
    edges       : 248
    boundingBox : (1.46050000191 -0.59500002861 0.107000097632) (1.64049994946 -0.589999973774 0.287000089884)

Refinement level according to distance to "RrBr.eMesh" (248 points, 248 edges).
    level 9 for all cells within 0 metre.
Read edgeMesh RrSUS.eMesh
    points      : 1122
    edges       : 1131
    boundingBox : (1.33550000191 -0.569999992847 0.113000698388) (1.66812205315 -0.054999999702 0.600983321667)

Refinement level according to distance to "RrSUS.eMesh" (1122 points, 1131 edges).
    level 9 for all cells within 0 metre.
Read edgeMesh RT.eMesh
    points      : 2507
    edges       : 2551
    boundingBox : (1.40294194221 -0.680974721909 0.00597946578637) (1.69805800915 -0.492851912975 0.344558387995)

Refinement level according to distance to "RT.eMesh" (2507 points, 2551 edges).
    level 9 for all cells within 0 metre.
Read edgeMesh RW.eMesh
    points      : 1762
    edges       : 1780
    boundingBox : (1.09746396542 -0.524713218212 0.576828896999) (2.0882499218 0.524713218212 1.21800005436)

Refinement level according to distance to "RW.eMesh" (1762 points, 1780 edges).
    level 10 for all cells within 0 metre.
Read edgeMesh SW.eMesh
    points      : 1849
    edges       : 1880
    boundingBox : (0.152145802975 -0.700494110584 0.0559832714498) (1.41166901588 -0.170000001788 0.532000005245)

Refinement level according to distance to "SW.eMesh" (1849 points, 1880 edges).
    level 9 for all cells within 0 metre.
Read features in = 0.09 s


Determining initial surface intersections
-----------------------------------------

Edge intersection testing:
    Number of edges             : 22500
    Number of edges to retest   : 0
    Number of intersected edges : 0
Edge intersection testing:
    Number of edges             : 22500
    Number of edges to retest   : 22500
    Number of intersected edges : 1
Calculated surface intersections in = 0.02 s

Initial mesh : cells:7000  faces:22500  points:8591  unbalance:0.008
Cells per refinement level:
    0	7000
Setting refinement level of surface to be consistent with curvature.
Checked curvature refinement in = 0 s


Adding patches for surface regions
----------------------------------

Patch Type                Region                        
----- ----                ------                        
Bo:

6     wall                Bo                            

FrBr:

7     wall                FrBr                          

FrSUS:

8     wall                FrSUS                         

Front_Tire:

9     wall                Front_Tire                    

FW:

10    wall                FW                            

RrBr:

11    wall                RrBr                          

RrSUS:

12    wall                RrSUS                         

Rear_Tire:

13    wall                Rear_Tire                     

RW:

14    wall                RW                            

SW:

15    wall                SW                            

Added patches in = 0.01 s

Edge intersection testing:
    Number of edges             : 22500
    Number of edges to retest   : 0
    Number of intersected edges : 1
Decomposition method scotch [8]

Refinement phase
----------------

Found point (7 -2 3) in cell 157 on processor 5

Feature refinement iteration 0
------------------------------

Marked for refinement due to explicit features             : 3 cells.
Determined cells to refine in = 0.01 s
Selected for feature refinement : 3 cells (out of 7000)
Edge intersection testing:
    Number of edges             : 22584
    Number of edges to retest   : 136
    Number of intersected edges : 10
Refined mesh in = 0.01 s
After refinement feature refinement iteration 0 : cells:7021  faces:22584  points:8638  unbalance:0.0152399943028
Cells per refinement level:
    0	6997
    1	24
Skipping balancing since max unbalance 0.0152399943028 is less than allowable 0.2

Feature refinement iteration 1
------------------------------

Marked for refinement due to explicit features             : 7 cells.
Determined cells to refine in = 0.01 s
Selected for feature refinement : 10 cells (out of 7021)
Edge intersection testing:
    Number of edges             : 22851
    Number of edges to retest   : 418
    Number of intersected edges : 49
Refined mesh in = 0.01 s
After refinement feature refinement iteration 1 : cells:7091  faces:22851  points:8775  unbalance:0.076293893668
Cells per refinement level:
    0	6994
    1	41
    2	56
Skipping balancing since max unbalance 0.076293893668 is less than allowable 0.2

Feature refinement iteration 2
------------------------------

Marked for refinement due to explicit features             : 35 cells.
Determined cells to refine in = 0.01 s
Selected for feature refinement : 51 cells (out of 7091)
Edge intersection testing:
    Number of edges             : 24117
    Number of edges to retest   : 1651
    Number of intersected edges : 232
Refined mesh in = 0.01 s
After refinement feature refinement iteration 2 : cells:7448  faces:24117  points:9347  unbalance:0.408163265306
Cells per refinement level:
    0	6990
    1	61
    2	117
    3	280
Balancing since max unbalance 0.408163265306 is larger than allowable 0.2
Balanced mesh in = 0.03 s
After balancing feature refinement iteration 2 : cells:7448  faces:24117  points:9347  unbalance:0.00966702470462
Cells per refinement level:
    0	6990
    1	61
    2	117
    3	280

Feature refinement iteration 3
------------------------------

Marked for refinement due to explicit features             : 146 cells.
Determined cells to refine in = 0.03 s
Selected for feature refinement : 172 cells (out of 7448)
Edge intersection testing:
    Number of edges             : 28296
    Number of edges to retest   : 5456
    Number of intersected edges : 859
Refined mesh in = 0.01 s
After refinement feature refinement iteration 3 : cells:8652  faces:28296  points:11154  unbalance:0.971336107258
Cells per refinement level:
    0	6989
    1	67
    2	110
    3	318
    4	1168
Balancing since max unbalance 0.971336107258 is larger than allowable 0.2
Balanced mesh in = 0.04 s
After balancing feature refinement iteration 3 : cells:8652  faces:28296  points:11154  unbalance:0.00970873786408
Cells per refinement level:
    0	6989
    1	67
    2	110
    3	318
    4	1168

Feature refinement iteration 4
------------------------------

Marked for refinement due to explicit features             : 442 cells.
Determined cells to refine in = 0.03 s
Selected for feature refinement : 566 cells (out of 8652)
Edge intersection testing:
    Number of edges             : 42174
    Number of edges to retest   : 19101
    Number of intersected edges : 3040
Refined mesh in = 0.03 s
After refinement feature refinement iteration 4 : cells:12614  faces:42174  points:17288  unbalance:1.41065482797
Cells per refinement level:
    0	6987
    1	77
    2	142
    3	346
    4	1526
    5	3536
Balancing since max unbalance 1.41065482797 is larger than allowable 0.2
Balanced mesh in = 0.05 s
After balancing feature refinement iteration 4 : cells:12614  faces:42174  points:17288  unbalance:0.00998890122087
Cells per refinement level:
    0	6987
    1	77
    2	142
    3	346
    4	1526
    5	3536

Feature refinement iteration 5
------------------------------

Marked for refinement due to explicit features             : 1124 cells.
Determined cells to refine in = 0.04 s
Selected for feature refinement : 1621 cells (out of 12614)
Edge intersection testing:
    Number of edges             : 81972
    Number of edges to retest   : 56689
    Number of intersected edges : 10165
Refined mesh in = 0.07 s
After refinement feature refinement iteration 5 : cells:23961  faces:81972  points:34850  unbalance:0.766871165644
Cells per refinement level:
    0	6987
    1	76
    2	144
    3	346
    4	1468
    5	5948
    6	8992
Balancing since max unbalance 0.766871165644 is larger than allowable 0.2
Balanced mesh in = 0.11 s
After balancing feature refinement iteration 5 : cells:23961  faces:81972  points:34850  unbalance:0.00972413505279
Cells per refinement level:
    0	6987
    1	76
    2	144
    3	346
    4	1468
    5	5948
    6	8992

Feature refinement iteration 6
------------------------------

Marked for refinement due to explicit features             : 2689 cells.
Determined cells to refine in = 0.07 s
Selected for feature refinement : 4429 cells (out of 23961)
Edge intersection testing:
    Number of edges             : 191265
    Number of edges to retest   : 159977
    Number of intersected edges : 28567
Refined mesh in = 0.17 s
After refinement feature refinement iteration 6 : cells:54964  faces:191265  points:83756  unbalance:0.567717051161
Cells per refinement level:
    0	6987
    1	76
    2	141
    3	351
    4	1358
    5	6573
    6	18086
    7	21392
Balancing since max unbalance 0.567717051161 is larger than allowable 0.2
Balanced mesh in = 0.26 s
After balancing feature refinement iteration 6 : cells:54964  faces:191265  points:83756  unbalance:0.00997016228804
Cells per refinement level:
    0	6987
    1	76
    2	141
    3	351
    4	1358
    5	6573
    6	18086
    7	21392

Feature refinement iteration 7
------------------------------

Marked for refinement due to explicit features             : 6559 cells.
Determined cells to refine in = 0.12 s
Selected for feature refinement : 11681 cells (out of 54964)
Edge intersection testing:
    Number of edges             : 479511
    Number of edges to retest   : 427622
    Number of intersected edges : 71823
Refined mesh in = 0.46 s
After refinement feature refinement iteration 7 : cells:136731  faces:479511  points:212506  unbalance:0.594064257557
Cells per refinement level:
    0	6986
    1	82
    2	152
    3	379
    4	1311
    5	6728
    6	22000
    7	46845
    8	52248
Balancing since max unbalance 0.594064257557 is larger than allowable 0.2
Balanced mesh in = 0.62 s
After balancing feature refinement iteration 7 : cells:136731  faces:479511  points:212506  unbalance:0.00955891494979
Cells per refinement level:
    0	6986
    1	82
    2	152
    3	379
    4	1311
    5	6728
    6	22000
    7	46845
    8	52248

Feature refinement iteration 8
------------------------------

Marked for refinement due to explicit features             : 16157 cells.
Determined cells to refine in = 0.25 s
Selected for feature refinement : 29706 cells (out of 136731)
Edge intersection testing:
    Number of edges             : 1211379
    Number of edges to retest   : 1101118
    Number of intersected edges : 169129
Refined mesh in = 1.14 s
After refinement feature refinement iteration 8 : cells:344673  faces:1211379  points:538247  unbalance:0.224099363745
Cells per refinement level:
    0	6986
    1	82
    2	152
    3	376
    4	1266
    5	6749
    6	23293
    7	60451
    8	116406
    9	128912
Balancing since max unbalance 0.224099363745 is larger than allowable 0.2
Balanced mesh in = 1.48 s
After balancing feature refinement iteration 8 : cells:344673  faces:1211379  points:538247  unbalance:0.00998337554726
Cells per refinement level:
    0	6986
    1	82
    2	152
    3	376
    4	1266
    5	6749
    6	23293
    7	60451
    8	116406
    9	128912

Feature refinement iteration 9
------------------------------

Marked for refinement due to explicit features             : 12850 cells.
Determined cells to refine in = 0.65 s
Selected for feature refinement : 24181 cells (out of 344673)
Edge intersection testing:
    Number of edges             : 1809516
    Number of edges to retest   : 921166
    Number of intersected edges : 244643
Refined mesh in = 1.4 s
After refinement feature refinement iteration 9 : cells:513940  faces:1809516  points:806354  unbalance:0.661158890143
Cells per refinement level:
    0	6986
    1	82
    2	152
    3	372
    4	1256
    5	6929
    6	23939
    7	62742
    8	128511
    9	180915
    10	102056
Balancing since max unbalance 0.661158890143 is larger than allowable 0.2
Balanced mesh in = 1.96 s
After balancing feature refinement iteration 9 : cells:513940  faces:1809516  points:806354  unbalance:0.00984550725766
Cells per refinement level:
    0	6986
    1	82
    2	152
    3	372
    4	1256
    5	6929
    6	23939
    7	62742
    8	128511
    9	180915
    10	102056

Feature refinement iteration 10
------------------------------

Marked for refinement due to explicit features             : 132 cells.
Determined cells to refine in = 1.04 s
Selected for feature refinement : 203 cells (out of 513940)
Edge intersection testing:
    Number of edges             : 1814166
    Number of edges to retest   : 12378
    Number of intersected edges : 244732
Refined mesh in = 0.4 s
After refinement feature refinement iteration 10 : cells:515361  faces:1814166  points:808163  unbalance:0.0178341007566
Cells per refinement level:
    0	6986
    1	82
    2	152
    3	372
    4	1256
    5	6929
    6	23933
    7	62728
    8	128878
    9	181941
    10	102104
Skipping balancing since max unbalance 0.0178341007566 is less than allowable 0.2

Feature refinement iteration 11
------------------------------

Marked for refinement due to explicit features             : 16 cells.
Determined cells to refine in = 0.92 s
Selected for feature refinement : 22 cells (out of 515361)
Edge intersection testing:
    Number of edges             : 1814673
    Number of edges to retest   : 1569
    Number of intersected edges : 244741
Refined mesh in = 0.4 s
After refinement feature refinement iteration 11 : cells:515515  faces:1814673  points:808363  unbalance:0.0179645597121
Cells per refinement level:
    0	6986
    1	82
    2	152
    3	372
    4	1256
    5	6929
    6	23932
    7	62731
    8	128906
    9	182033
    10	102136
Skipping balancing since max unbalance 0.0179645597121 is less than allowable 0.2

Feature refinement iteration 12
------------------------------

Marked for refinement due to explicit features             : 2 cells.
Determined cells to refine in = 0.98 s
Selected for feature refinement : 2 cells (out of 515515)
Edge intersection testing:
    Number of edges             : 1814715
    Number of edges to retest   : 201
    Number of intersected edges : 244740
Refined mesh in = 0.37 s
After refinement feature refinement iteration 12 : cells:515529  faces:1814715  points:808376  unbalance:0.0179369152851
Cells per refinement level:
    0	6986
    1	82
    2	152
    3	372
    4	1256
    5	6929
    6	23932
    7	62731
    8	128904
    9	182049
    10	102136
Skipping balancing since max unbalance 0.0179369152851 is less than allowable 0.2

Feature refinement iteration 13
------------------------------

Marked for refinement due to explicit features             : 1 cells.
Determined cells to refine in = 0.99 s
Selected for feature refinement : 1 cells (out of 515529)
Edge intersection testing:
    Number of edges             : 1814736
    Number of edges to retest   : 99
    Number of intersected edges : 244740
Refined mesh in = 0.38 s
After refinement feature refinement iteration 13 : cells:515536  faces:1814736  points:808382  unbalance:0.0179230936346
Cells per refinement level:
    0	6986
    1	82
    2	152
    3	372
    4	1256
    5	6929
    6	23932
    7	62731
    8	128903
    9	182057
    10	102136
Skipping balancing since max unbalance 0.0179230936346 is less than allowable 0.2

Feature refinement iteration 14
------------------------------

Marked for refinement due to explicit features             : 0 cells.
Determined cells to refine in = 0.96 s
Selected for feature refinement : 0 cells (out of 515536)
Stopping refining since too few cells selected.


Surface refinement iteration 0
------------------------------

Marked for refinement due to surface intersection          : 65567 cells.
Marked for refinement due to curvature/regions             : 25565 cells.
Determined cells to refine in = 0.32 s
Selected for refinement : 97038 cells (out of 515536)
Edge intersection testing:
    Number of edges             : 4008036
    Number of edges to retest   : 3403846
    Number of intersected edges : 486022
Refined mesh in = 3.34 s
After refinement surface refinement iteration 0 : cells:1194802  faces:4008036  points:1638638  unbalance:0.172813570784
Cells per refinement level:
    0	6986
    1	81
    2	157
    3	377
    4	1204
    5	6396
    6	32158
    7	110454
    8	286751
    9	502990
    10	247248
Skipping balancing since max unbalance 0.172813570784 is less than allowable 0.2

Surface refinement iteration 1
------------------------------

Marked for refinement due to surface intersection          : 98551 cells.
Marked for refinement due to curvature/regions             : 28888 cells.
Determined cells to refine in = 0.62 s
Selected for refinement : 134410 cells (out of 1194802)
Edge intersection testing:
    Number of edges             : 7026876
    Number of edges to retest   : 4550015
    Number of intersected edges : 817347
Refined mesh in = 4.46 s
After refinement surface refinement iteration 1 : cells:2135672  faces:7026876  points:2773276  unbalance:0.261264838421
Cells per refinement level:
    0	6986
    1	81
    2	156
    3	380
    4	1159
    5	5974
    6	32037
    7	145472
    8	512584
    9	1009309
    10	419918
    11	1616
Balancing since max unbalance 0.261264838421 is larger than allowable 0.2
Balanced mesh in = 6.91 s
After balancing surface refinement iteration 1 : cells:2135672  faces:7026876  points:2773276  unbalance:0.0099977899228
Cells per refinement level:
    0	6986
    1	81
    2	156
    3	380
    4	1159
    5	5974
    6	32037
    7	145472
    8	512584
    9	1009309
    10	419918
    11	1616

Surface refinement iteration 2
------------------------------

Marked for refinement due to surface intersection          : 110472 cells.
Marked for refinement due to curvature/regions             : 31926 cells.
Determined cells to refine in = 0.99 s
Selected for refinement : 149851 cells (out of 2135672)
Edge intersection testing:
    Number of edges             : 10394889
    Number of edges to retest   : 4882897
    Number of intersected edges : 1173245
Refined mesh in = 5.07 s
After refinement surface refinement iteration 2 : cells:3184629  faces:10394889  points:4041449  unbalance:0.103374992817
Cells per refinement level:
    0	6986
    1	81
    2	154
    3	392
    4	1165
    5	5706
    6	31294
    7	149160
    8	688213
    9	1673540
    10	617330
    11	10608
Skipping balancing since max unbalance 0.103374992817 is less than allowable 0.2

Surface refinement iteration 3
------------------------------

Marked for refinement due to surface intersection          : 74035 cells.
Marked for refinement due to curvature/regions             : 27088 cells.
Determined cells to refine in = 1.25 s
Selected for refinement : 106985 cells (out of 3184629)
Edge intersection testing:
    Number of edges             : 12817992
    Number of edges to retest   : 3416658
    Number of intersected edges : 1423899
Refined mesh in = 5.27 s
After refinement surface refinement iteration 3 : cells:3933524  faces:12817992  points:4965967  unbalance:0.357547074837
Cells per refinement level:
    0	6986
    1	81
    2	154
    3	390
    4	1155
    5	5745
    6	31359
    7	145702
    8	735762
    9	2146665
    10	828717
    11	30808
Balancing since max unbalance 0.357547074837 is larger than allowable 0.2
Balanced mesh in = 13.49 s
After balancing surface refinement iteration 3 : cells:3933524  faces:12817992  points:4965967  unbalance:0.00999917631111
Cells per refinement level:
    0	6986
    1	81
    2	154
    3	390
    4	1155
    5	5745
    6	31359
    7	145702
    8	735762
    9	2146665
    10	828717
    11	30808

Surface refinement iteration 4
------------------------------

Marked for refinement due to surface intersection          : 48332 cells.
Marked for refinement due to curvature/regions             : 7442 cells.
Determined cells to refine in = 1.47 s
Selected for refinement : 59247 cells (out of 3933524)
Edge intersection testing:
    Number of edges             : 14195394
    Number of edges to retest   : 1912302
    Number of intersected edges : 1564611
Refined mesh in = 4.67 s
After refinement surface refinement iteration 4 : cells:4348253  faces:14195394  points:5515243  unbalance:0.161994943716
Cells per refinement level:
    0	6986
    1	81
    2	154
    3	390
    4	1149
    5	5748
    6	31469
    7	145146
    8	737121
    9	2290148
    10	874477
    11	255384
Skipping balancing since max unbalance 0.161994943716 is less than allowable 0.2

Surface refinement iteration 5
------------------------------

Marked for refinement due to surface intersection          : 10896 cells.
Marked for refinement due to curvature/regions             : 1664 cells.
Determined cells to refine in = 1.49 s
Selected for refinement : 14039 cells (out of 4348253)
Edge intersection testing:
    Number of edges             : 14523399
    Number of edges to retest   : 504291
    Number of intersected edges : 1599184
Refined mesh in = 4.23 s
After refinement surface refinement iteration 5 : cells:4446526  faces:14523399  points:5646784  unbalance:0.223049184914
Cells per refinement level:
    0	6986
    1	81
    2	154
    3	390
    4	1149
    5	5747
    6	31447
    7	145251
    8	737178
    9	2295896
    10	883551
    11	338696
Balancing since max unbalance 0.223049184914 is larger than allowable 0.2
Balanced mesh in = 14.85 s
After balancing surface refinement iteration 5 : cells:4446526  faces:14523399  points:5646784  unbalance:0.00999836726469
Cells per refinement level:
    0	6986
    1	81
    2	154
    3	390
    4	1149
    5	5747
    6	31447
    7	145251
    8	737178
    9	2295896
    10	883551
    11	338696

Surface refinement iteration 6
------------------------------

Marked for refinement due to surface intersection          : 547 cells.
Marked for refinement due to curvature/regions             : 623 cells.
Determined cells to refine in = 1.57 s
Selected for refinement : 1521 cells (out of 4446526)
Edge intersection testing:
    Number of edges             : 14558271
    Number of edges to retest   : 64528
    Number of intersected edges : 1602021
Refined mesh in = 3.71 s
After refinement surface refinement iteration 6 : cells:4457173  faces:14558271  points:5660427  unbalance:0.0107895744679
Cells per refinement level:
    0	6986
    1	81
    2	154
    3	390
    4	1149
    5	5747
    6	31439
    7	145280
    8	737268
    9	2296675
    10	888932
    11	343072
Skipping balancing since max unbalance 0.0107895744679 is less than allowable 0.2

Surface refinement iteration 7
------------------------------

Marked for refinement due to surface intersection          : 0 cells.
Marked for refinement due to curvature/regions             : 97 cells.
Determined cells to refine in = 1.52 s
Selected for refinement : 143 cells (out of 4457173)
Edge intersection testing:
    Number of edges             : 14561475
    Number of edges to retest   : 6652
    Number of intersected edges : 1602209
Refined mesh in = 3.53 s
After refinement surface refinement iteration 7 : cells:4458174  faces:14561475  points:5661626  unbalance:0.0123211880021
Cells per refinement level:
    0	6986
    1	81
    2	154
    3	390
    4	1149
    5	5747
    6	31439
    7	145280
    8	737220
    9	2296964
    10	889692
    11	343072
Skipping balancing since max unbalance 0.0123211880021 is less than allowable 0.2

Surface refinement iteration 8
------------------------------

Marked for refinement due to surface intersection          : 0 cells.
Marked for refinement due to curvature/regions             : 2 cells.
Determined cells to refine in = 1.55 s
Selected for refinement : 2 cells (out of 4458174)
Edge intersection testing:
    Number of edges             : 14561520
    Number of edges to retest   : 165
    Number of intersected edges : 1602213
Refined mesh in = 3.29 s
After refinement surface refinement iteration 8 : cells:4458188  faces:14561520  points:5661643  unbalance:0.0123180090207
Cells per refinement level:
    0	6986
    1	81
    2	154
    3	390
    4	1149
    5	5747
    6	31439
    7	145280
    8	737218
    9	2296980
    10	889692
    11	343072
Skipping balancing since max unbalance 0.0123180090207 is less than allowable 0.2

Surface refinement iteration 9
------------------------------

Marked for refinement due to surface intersection          : 0 cells.
Marked for refinement due to curvature/regions             : 2 cells.
Determined cells to refine in = 1.46 s
Selected for refinement : 2 cells (out of 4458188)
Edge intersection testing:
    Number of edges             : 14561565
    Number of edges to retest   : 165
    Number of intersected edges : 1602217
Refined mesh in = 3.1 s
After refinement surface refinement iteration 9 : cells:4458202  faces:14561565  points:5661660  unbalance:0.0123148300593
Cells per refinement level:
    0	6986
    1	81
    2	154
    3	390
    4	1149
    5	5747
    6	31439
    7	145280
    8	737216
    9	2296996
    10	889692
    11	343072
Skipping balancing since max unbalance 0.0123148300593 is less than allowable 0.2

Surface refinement iteration 10
------------------------------

Marked for refinement due to surface intersection          : 0 cells.
Marked for refinement due to curvature/regions             : 2 cells.
Determined cells to refine in = 1.5 s
Selected for refinement : 2 cells (out of 4458202)
Edge intersection testing:
    Number of edges             : 14561610
    Number of edges to retest   : 165
    Number of intersected edges : 1602221
Refined mesh in = 3.28 s
After refinement surface refinement iteration 10 : cells:4458216  faces:14561610  points:5661677  unbalance:0.0123116511178
Cells per refinement level:
    0	6986
    1	81
    2	154
    3	390
    4	1149
    5	5747
    6	31439
    7	145280
    8	737214
    9	2297012
    10	889692
    11	343072
Skipping balancing since max unbalance 0.0123116511178 is less than allowable 0.2

Surface refinement iteration 11
------------------------------

Marked for refinement due to surface intersection          : 0 cells.
Marked for refinement due to curvature/regions             : 2 cells.
Determined cells to refine in = 1.48 s
Selected for refinement : 2 cells (out of 4458216)
Edge intersection testing:
    Number of edges             : 14561655
    Number of edges to retest   : 165
    Number of intersected edges : 1602225
Refined mesh in = 3.28 s
After refinement surface refinement iteration 11 : cells:4458230  faces:14561655  points:5661694  unbalance:0.0123084721964
Cells per refinement level:
    0	6986
    1	81
    2	154
    3	390
    4	1149
    5	5747
    6	31439
    7	145280
    8	737212
    9	2297028
    10	889692
    11	343072
Skipping balancing since max unbalance 0.0123084721964 is less than allowable 0.2

Surface refinement iteration 12
------------------------------

Marked for refinement due to surface intersection          : 0 cells.
Marked for refinement due to curvature/regions             : 0 cells.
Determined cells to refine in = 1.66 s
Selected for refinement : 0 cells (out of 4458230)
Stopping refining since too few cells selected.


Removing mesh beyond surface intersections
------------------------------------------

Setting cellZones according to locationsInMesh:
Location : (7 -2 3)
    cellZone : none

For cellZone none found point (7 -2 3) in global region 0 out of 119 regions.
--> FOAM Warning : 
    From void Foam::meshRefinement::nearestFace(const labelUList&, const Foam::bitSet&, Foam::autoPtr<Foam::mapDistribute>&, Foam::labelList&, Foam::label) const
    in file meshRefinement/meshRefinement.C at line 527
    Did not visit some faces, e.g. face 0 at (1.4 -1.6 1.8)
Keeping all cells containing inside points
Selected for keeping : 3689810 cells.
Edge intersection testing:
    Number of edges             : 12527923
    Number of edges to retest   : 1005661
    Number of intersected edges : 1602231

Shell refinement iteration 0
----------------------------

Marked for refinement due to distance to explicit features : 0 cells.
Marked for refinement due to refinement shells             : 53199 cells.
Determined cells to refine in = 6.11 s
Selected for internal refinement : 425950 cells (out of 3689810)
Edge intersection testing:
    Number of edges             : 21631054
    Number of edges to retest   : 16756075
    Number of intersected edges : 1695103
Refined mesh in = 15.44 s
After refinement shell refinement iteration 0 : cells:6671460  faces:21631054  points:8266410  unbalance:0.159587856331
Cells per refinement level:
    0	6578
    1	3264
    2	648
    3	1232
    4	3120
    5	9637
    6	38504
    7	273331
    8	795817
    9	3296971
    10	1858316
    11	384042
Skipping balancing since max unbalance 0.159587856331 is less than allowable 0.2

Shell refinement iteration 1
----------------------------

Marked for refinement due to distance to explicit features : 0 cells.
Marked for refinement due to refinement shells             : 66604 cells.
Determined cells to refine in = 1.63 s
Selected for internal refinement : 210515 cells (out of 6671460)
Edge intersection testing:
    Number of edges             : 26116855
    Number of edges to retest   : 9870981
    Number of intersected edges : 1754634
Refined mesh in = 12.91 s
After refinement shell refinement iteration 1 : cells:8145065  faces:26116855  points:9804311  unbalance:0.206341263084
Cells per refinement level:
    0	6154
    1	3975
    2	21475
    3	5161
    4	8312
    5	29416
    6	45103
    7	527851
    8	946045
    9	3571982
    10	2453093
    11	526498
Balancing since max unbalance 0.206341263084 is larger than allowable 0.2
Balanced mesh in = 27.09 s
After balancing shell refinement iteration 1 : cells:8145065  faces:26116855  points:9804421  unbalance:0.00882976378948
Cells per refinement level:
    0	6154
    1	3975
    2	21475
    3	5161
    4	8312
    5	29416
    6	45103
    7	527851
    8	946045
    9	3571982
    10	2453093
    11	526498

Shell refinement iteration 2
----------------------------

Marked for refinement due to distance to explicit features : 0 cells.
Marked for refinement due to refinement shells             : 90042 cells.
Determined cells to refine in = 1.94 s
Selected for internal refinement : 115758 cells (out of 8145065)
Edge intersection testing:
    Number of edges             : 28583098
    Number of edges to retest   : 3969989
    Number of intersected edges : 1780090
Refined mesh in = 8.99 s
After refinement shell refinement iteration 2 : cells:8955371  faces:28583098  points:10649951  unbalance:0.191534331743
Cells per refinement level:
    0	5900
    1	5166
    2	16553
    3	97085
    4	10456
    5	90049
    6	40111
    7	812463
    8	966875
    9	3622642
    10	2517093
    11	770978
Skipping balancing since max unbalance 0.191534331743 is less than allowable 0.2

Shell refinement iteration 3
----------------------------

Marked for refinement due to distance to explicit features : 0 cells.
Marked for refinement due to refinement shells             : 29719 cells.
Determined cells to refine in = 1.78 s
Selected for internal refinement : 40257 cells (out of 8955371)
Edge intersection testing:
    Number of edges             : 29432191
    Number of edges to retest   : 1427923
    Number of intersected edges : 1783827
Refined mesh in = 9.28 s
After refinement shell refinement iteration 3 : cells:9237170  faces:29432191  points:10935421  unbalance:0.23036471127
Cells per refinement level:
    0	5899
    1	5169
    2	16174
    3	98789
    4	14399
    5	162876
    6	30145
    7	962016
    8	970266
    9	3629702
    10	2570757
    11	770978
Balancing since max unbalance 0.23036471127 is larger than allowable 0.2
Balanced mesh in = 28.95 s
After balancing shell refinement iteration 3 : cells:9237170  faces:29432191  points:10935538  unbalance:0.00540923248138
Cells per refinement level:
    0	5899
    1	5169
    2	16174
    3	98789
    4	14399
    5	162876
    6	30145
    7	962016
    8	970266
    9	3629702
    10	2570757
    11	770978

Shell refinement iteration 4
----------------------------

Marked for refinement due to distance to explicit features : 0 cells.
Marked for refinement due to refinement shells             : 9300 cells.
Determined cells to refine in = 1.98 s
Selected for internal refinement : 14923 cells (out of 9237170)
Edge intersection testing:
    Number of edges             : 29747755
    Number of edges to retest   : 568884
    Number of intersected edges : 1786378
Refined mesh in = 8.45 s
After refinement shell refinement iteration 4 : cells:9341631  faces:29747755  points:11042243  unbalance:0.0382615198567
Cells per refinement level:
    0	5898
    1	5177
    2	16077
    3	99090
    4	9055
    5	235940
    6	30847
    7	961908
    8	970533
    9	3631235
    10	2604893
    11	770978
Skipping balancing since max unbalance 0.0382615198567 is less than allowable 0.2

Shell refinement iteration 5
----------------------------

Marked for refinement due to distance to explicit features : 0 cells.
Marked for refinement due to refinement shells             : 102 cells.
Determined cells to refine in = 2.07 s
Selected for internal refinement : 3808 cells (out of 9341631)
Edge intersection testing:
    Number of edges             : 29827714
    Number of edges to retest   : 221773
    Number of intersected edges : 1786818
Refined mesh in = 8.06 s
After refinement shell refinement iteration 5 : cells:9368287  faces:29827714  points:11068885  unbalance:0.035444793696
Cells per refinement level:
    0	5898
    1	5177
    2	16054
    3	99257
    4	9153
    5	236175
    6	31399
    7	961871
    8	970233
    9	3632975
    10	2629117
    11	770978
Skipping balancing since max unbalance 0.035444793696 is less than allowable 0.2

Shell refinement iteration 6
----------------------------

Marked for refinement due to distance to explicit features : 0 cells.
Marked for refinement due to refinement shells             : 85 cells.
Determined cells to refine in = 1.74 s
Selected for internal refinement : 3223 cells (out of 9368287)
Edge intersection testing:
    Number of edges             : 29895691
    Number of edges to retest   : 183204
    Number of intersected edges : 1787353
Refined mesh in = 8.25 s
After refinement shell refinement iteration 6 : cells:9390848  faces:29895691  points:11091735  unbalance:0.032981047079
Cells per refinement level:
    0	5898
    1	5177
    2	16050
    3	99279
    4	9195
    5	236411
    6	31943
    7	961839
    8	970175
    9	3632730
    10	2651173
    11	770978
Skipping balancing since max unbalance 0.032981047079 is less than allowable 0.2

Shell refinement iteration 7
----------------------------

Marked for refinement due to distance to explicit features : 0 cells.
Marked for refinement due to refinement shells             : 87 cells.
Determined cells to refine in = 1.78 s
Selected for internal refinement : 3068 cells (out of 9390848)
Edge intersection testing:
    Number of edges             : 29960572
    Number of edges to retest   : 170394
    Number of intersected edges : 1788118
Refined mesh in = 8.54 s
After refinement shell refinement iteration 7 : cells:9412324  faces:29960572  points:11113669  unbalance:0.030630054809
Cells per refinement level:
    0	5898
    1	5177
    2	16049
    3	99274
    4	9261
    5	236639
    6	32551
    7	961821
    8	969931
    9	3633300
    10	2671445
    11	770978
Skipping balancing since max unbalance 0.030630054809 is less than allowable 0.2

Shell refinement iteration 8
----------------------------

Marked for refinement due to distance to explicit features : 0 cells.
Marked for refinement due to refinement shells             : 69 cells.
Determined cells to refine in = 1.98 s
Selected for internal refinement : 2208 cells (out of 9412324)
Edge intersection testing:
    Number of edges             : 30007072
    Number of edges to retest   : 125946
    Number of intersected edges : 1788296
Refined mesh in = 8.23 s
After refinement shell refinement iteration 8 : cells:9427780  faces:30007072  points:11129255  unbalance:0.0289404292421
Cells per refinement level:
    0	5898
    1	5177
    2	16049
    3	99261
    4	9327
    5	236891
    6	32967
    7	961794
    8	969909
    9	3633364
    10	2686165
    11	770978
Skipping balancing since max unbalance 0.0289404292421 is less than allowable 0.2

Shell refinement iteration 9
----------------------------

Marked for refinement due to distance to explicit features : 0 cells.
Marked for refinement due to refinement shells             : 105 cells.
Determined cells to refine in = 1.73 s
Selected for internal refinement : 2148 cells (out of 9427780)
Edge intersection testing:
    Number of edges             : 30052390
    Number of edges to retest   : 121184
    Number of intersected edges : 1788489
Refined mesh in = 8.14 s
After refinement shell refinement iteration 9 : cells:9442816  faces:30052390  points:11144500  unbalance:0.0273020251586
Cells per refinement level:
    0	5898
    1	5177
    2	16049
    3	99246
    4	9403
    5	237151
    6	33703
    7	961773
    8	969789
    9	3633980
    10	2699669
    11	770978
Skipping balancing since max unbalance 0.0273020251586 is less than allowable 0.2

Shell refinement iteration 10
----------------------------

Marked for refinement due to distance to explicit features : 0 cells.
Marked for refinement due to refinement shells             : 72 cells.
Determined cells to refine in = 1.88 s
Selected for internal refinement : 1804 cells (out of 9442816)
Edge intersection testing:
    Number of edges             : 30090310
    Number of edges to retest   : 102960
    Number of intersected edges : 1788668
Refined mesh in = 8.43 s
After refinement shell refinement iteration 10 : cells:9455444  faces:30090310  points:11157167  unbalance:0.0263691477629
Cells per refinement level:
    0	5898
    1	5177
    2	16049
    3	99236
    4	9448
    5	237371
    6	34183
    7	961748
    8	969834
    9	3633701
    10	2711821
    11	770978
Skipping balancing since max unbalance 0.0263691477629 is less than allowable 0.2

Shell refinement iteration 11
----------------------------

Marked for refinement due to distance to explicit features : 0 cells.
Marked for refinement due to refinement shells             : 88 cells.
Determined cells to refine in = 2.1 s
Selected for internal refinement : 1649 cells (out of 9455444)
Edge intersection testing:
    Number of edges             : 30124843
    Number of edges to retest   : 93321
    Number of intersected edges : 1788807
Refined mesh in = 8.15 s
After refinement shell refinement iteration 11 : cells:9466987  faces:30124843  points:11168614  unbalance:0.0281370408558
Cells per refinement level:
    0	5898
    1	5177
    2	16049
    3	99224
    4	9501
    5	237643
    6	34759
    7	961735
    8	969714
    9	3634208
    10	2722101
    11	770978
Skipping balancing since max unbalance 0.0281370408558 is less than allowable 0.2

Shell refinement iteration 12
----------------------------

Marked for refinement due to distance to explicit features : 0 cells.
Marked for refinement due to refinement shells             : 94 cells.
Determined cells to refine in = 1.78 s
Selected for internal refinement : 1277 cells (out of 9466987)
Edge intersection testing:
    Number of edges             : 30151723
    Number of edges to retest   : 72454
    Number of intersected edges : 1788924
Refined mesh in = 8.54 s
After refinement shell refinement iteration 12 : cells:9475926  faces:30151723  points:11177622  unbalance:0.0291646431177
Cells per refinement level:
    0	5898
    1	5177
    2	16049
    3	99208
    4	9587
    5	237895
    6	35431
    7	961706
    8	969852
    9	3633948
    10	2730197
    11	770978
Skipping balancing since max unbalance 0.0291646431177 is less than allowable 0.2

Shell refinement iteration 13
----------------------------

Marked for refinement due to distance to explicit features : 0 cells.
Marked for refinement due to refinement shells             : 77 cells.
Determined cells to refine in = 1.86 s
Selected for internal refinement : 1114 cells (out of 9475926)
Edge intersection testing:
    Number of edges             : 30175345
    Number of edges to retest   : 62484
    Number of intersected edges : 1789124
Refined mesh in = 7.58 s
After refinement shell refinement iteration 13 : cells:9483724  faces:30175345  points:11185648  unbalance:0.0296292890852
Cells per refinement level:
    0	5898
    1	5177
    2	16049
    3	99193
    4	9665
    5	238171
    6	35911
    7	961697
    8	969781
    9	3634247
    10	2736957
    11	770978
Skipping balancing since max unbalance 0.0296292890852 is less than allowable 0.2

Shell refinement iteration 14
----------------------------

Marked for refinement due to distance to explicit features : 0 cells.
Marked for refinement due to refinement shells             : 102 cells.
Determined cells to refine in = 1.92 s
Selected for internal refinement : 979 cells (out of 9483724)
Edge intersection testing:
    Number of edges             : 30196231
    Number of edges to retest   : 53815
    Number of intersected edges : 1789349
Refined mesh in = 7.18 s
After refinement shell refinement iteration 14 : cells:9490577  faces:30196231  points:11192822  unbalance:0.0299734146828
Cells per refinement level:
    0	5898
    1	5177
    2	16049
    3	99182
    4	9712
    5	238407
    6	36647
    7	961677
    8	969840
    9	3634341
    10	2742669
    11	770978
Skipping balancing since max unbalance 0.0299734146828 is less than allowable 0.2

Shell refinement iteration 15
----------------------------

Marked for refinement due to distance to explicit features : 0 cells.
Marked for refinement due to refinement shells             : 67 cells.
Determined cells to refine in = 1.78 s
Selected for internal refinement : 740 cells (out of 9490577)
Edge intersection testing:
    Number of edges             : 30212032
    Number of edges to retest   : 42064
    Number of intersected edges : 1789440
Refined mesh in = 8.41 s
After refinement shell refinement iteration 15 : cells:9495757  faces:30212032  points:11198267  unbalance:0.0305025707798
Cells per refinement level:
    0	5898
    1	5177
    2	16049
    3	99167
    4	9795
    5	238647
    6	37095
    7	961664
    8	969854
    9	3634532
    10	2746901
    11	770978
Skipping balancing since max unbalance 0.0305025707798 is less than allowable 0.2

Shell refinement iteration 16
----------------------------

Marked for refinement due to distance to explicit features : 0 cells.
Marked for refinement due to refinement shells             : 96 cells.
Determined cells to refine in = 1.84 s
Selected for internal refinement : 688 cells (out of 9495757)
Edge intersection testing:
    Number of edges             : 30226804
    Number of edges to retest   : 38583
    Number of intersected edges : 1789540
Refined mesh in = 8.28 s
After refinement shell refinement iteration 16 : cells:9500573  faces:30226804  points:11203409  unbalance:0.0309940253077
Cells per refinement level:
    0	5898
    1	5177
    2	16049
    3	99156
    4	9840
    5	238915
    6	37703
    7	961653
    8	969859
    9	3634732
    10	2750613
    11	770978
Skipping balancing since max unbalance 0.0309940253077 is less than allowable 0.2

Shell refinement iteration 17
----------------------------

Marked for refinement due to distance to explicit features : 0 cells.
Marked for refinement due to refinement shells             : 96 cells.
Determined cells to refine in = 1.92 s
Selected for internal refinement : 642 cells (out of 9500573)
Edge intersection testing:
    Number of edges             : 30240571
    Number of edges to retest   : 35964
    Number of intersected edges : 1789622
Refined mesh in = 7.74 s
After refinement shell refinement iteration 17 : cells:9505067  faces:30240571  points:11208189  unbalance:0.0314521717732
Cells per refinement level:
    0	5898
    1	5177
    2	16049
    3	99142
    4	9912
    5	239151
    6	38375
    7	961644
    8	969851
    9	3634957
    10	2753933
    11	770978
Skipping balancing since max unbalance 0.0314521717732 is less than allowable 0.2

Shell refinement iteration 18
----------------------------

Marked for refinement due to distance to explicit features : 0 cells.
Marked for refinement due to refinement shells             : 70 cells.
Determined cells to refine in = 1.8 s
Selected for internal refinement : 537 cells (out of 9505067)
Edge intersection testing:
    Number of edges             : 30252115
    Number of edges to retest   : 30280
    Number of intersected edges : 1789712
Refined mesh in = 8.45 s
After refinement shell refinement iteration 18 : cells:9508826  faces:30252115  points:11212220  unbalance:0.0318291658718
Cells per refinement level:
    0	5898
    1	5177
    2	16049
    3	99132
    4	9953
    5	239407
    6	38823
    7	961634
    8	969867
    9	3635111
    10	2756797
    11	770978
Skipping balancing since max unbalance 0.0318291658718 is less than allowable 0.2

Shell refinement iteration 19
----------------------------

Marked for refinement due to distance to explicit features : 0 cells.
Marked for refinement due to refinement shells             : 93 cells.
Determined cells to refine in = 1.83 s
Selected for internal refinement : 516 cells (out of 9508826)
Edge intersection testing:
    Number of edges             : 30263293
    Number of edges to retest   : 28160
    Number of intersected edges : 1789792
Refined mesh in = 7.37 s
After refinement shell refinement iteration 19 : cells:9512438  faces:30263293  points:11216175  unbalance:0.0321967932932
Cells per refinement level:
    0	5898
    1	5177
    2	16049
    3	99120
    4	10011
    5	239627
    6	39495
    7	961630
    8	969830
    9	3635354
    10	2759269
    11	770978
Skipping balancing since max unbalance 0.0321967932932 is less than allowable 0.2

Shell refinement iteration 20
----------------------------

Marked for refinement due to distance to explicit features : 0 cells.
Marked for refinement due to refinement shells             : 69 cells.
Determined cells to refine in = 1.78 s
Selected for internal refinement : 457 cells (out of 9512438)
Edge intersection testing:
    Number of edges             : 30273187
    Number of edges to retest   : 25676
    Number of intersected edges : 1789859
Refined mesh in = 8.7 s
After refinement shell refinement iteration 20 : cells:9515637  faces:30273187  points:11219677  unbalance:0.0325162676971
Cells per refinement level:
    0	5898
    1	5177
    2	16049
    3	99104
    4	10103
    5	239855
    6	39975
    7	961620
    8	969848
    9	3635577
    10	2761453
    11	770978
Skipping balancing since max unbalance 0.0325162676971 is less than allowable 0.2

Shell refinement iteration 21
----------------------------

Marked for refinement due to distance to explicit features : 0 cells.
Marked for refinement due to refinement shells             : 70 cells.
Determined cells to refine in = 1.88 s
Selected for internal refinement : 404 cells (out of 9515637)
Edge intersection testing:
    Number of edges             : 30282001
    Number of edges to retest   : 22582
    Number of intersected edges : 1789948
Refined mesh in = 7.4 s
After refinement shell refinement iteration 21 : cells:9518465  faces:30282001  points:11222844  unbalance:0.032803713624
Cells per refinement level:
    0	5898
    1	5177
    2	16049
    3	99094
    4	10142
    5	240123
    6	40455
    7	961614
    8	969842
    9	3635776
    10	2763317
    11	770978
Skipping balancing since max unbalance 0.032803713624 is less than allowable 0.2

Shell refinement iteration 22
----------------------------

Marked for refinement due to distance to explicit features : 0 cells.
Marked for refinement due to refinement shells             : 99 cells.
Determined cells to refine in = 1.73 s
Selected for internal refinement : 400 cells (out of 9518465)
Edge intersection testing:
    Number of edges             : 30290743
    Number of edges to retest   : 21950
    Number of intersected edges : 1790013
Refined mesh in = 8.12 s
After refinement shell refinement iteration 22 : cells:9521265  faces:30290743  points:11225979  unbalance:0.0330881453252
Cells per refinement level:
    0	5898
    1	5177
    2	16049
    3	99085
    4	10175
    5	240347
    6	41159
    7	961608
    8	969836
    9	3636004
    10	2764949
    11	770978
Skipping balancing since max unbalance 0.0330881453252 is less than allowable 0.2

Shell refinement iteration 23
----------------------------

Marked for refinement due to distance to explicit features : 0 cells.
Marked for refinement due to refinement shells             : 73 cells.
Determined cells to refine in = 1.8 s
Selected for internal refinement : 316 cells (out of 9521265)
Edge intersection testing:
    Number of edges             : 30297682
    Number of edges to retest   : 17820
    Number of intersected edges : 1790089
Refined mesh in = 7.96 s
After refinement shell refinement iteration 23 : cells:9523477  faces:30297682  points:11228495  unbalance:0.0333127281139
Cells per refinement level:
    0	5898
    1	5177
    2	16049
    3	99073
    4	10235
    5	240575
    6	41639
    7	961605
    8	969815
    9	3636204
    10	2766229
    11	770978
Skipping balancing since max unbalance 0.0333127281139 is less than allowable 0.2

Shell refinement iteration 24
----------------------------

Marked for refinement due to distance to explicit features : 0 cells.
Marked for refinement due to refinement shells             : 77 cells.
Determined cells to refine in = 1.78 s
Selected for internal refinement : 296 cells (out of 9523477)
Edge intersection testing:
    Number of edges             : 30304261
    Number of edges to retest   : 16656
    Number of intersected edges : 1790179
Refined mesh in = 7.86 s
After refinement shell refinement iteration 24 : cells:9525549  faces:30304261  points:11230937  unbalance:0.0335230021913
Cells per refinement level:
    0	5898
    1	5177
    2	16049
    3	99062
    4	10283
    5	240827
    6	42183
    7	961600
    8	969809
    9	3636446
    10	2767237
    11	770978
Skipping balancing since max unbalance 0.0335230021913 is less than allowable 0.2

Shell refinement iteration 25
----------------------------

Marked for refinement due to distance to explicit features : 0 cells.
Marked for refinement due to refinement shells             : 84 cells.
Determined cells to refine in = 1.74 s
Selected for internal refinement : 286 cells (out of 9525549)
Edge intersection testing:
    Number of edges             : 30310660
    Number of edges to retest   : 15884
    Number of intersected edges : 1790284
Refined mesh in = 7.49 s
After refinement shell refinement iteration 25 : cells:9527551  faces:30310660  points:11233330  unbalance:0.0337260855387
Cells per refinement level:
    0	5898
    1	5177
    2	16049
    3	99048
    4	10352
    5	241103
    6	42727
    7	961595
    8	969805
    9	3636686
    10	2768133
    11	770978
Skipping balancing since max unbalance 0.0337260855387 is less than allowable 0.2

Shell refinement iteration 26
----------------------------

Marked for refinement due to distance to explicit features : 0 cells.
Marked for refinement due to refinement shells             : 107 cells.
Determined cells to refine in = 1.84 s
Selected for internal refinement : 308 cells (out of 9527551)
Edge intersection testing:
    Number of edges             : 30317578
    Number of edges to retest   : 16474
    Number of intersected edges : 1790391
Refined mesh in = 7.76 s
After refinement shell refinement iteration 26 : cells:9529707  faces:30317578  points:11235936  unbalance:0.0339446952566
Cells per refinement level:
    0	5898
    1	5177
    2	16049
    3	99033
    4	10427
    5	241371
    6	43463
    7	961592
    8	969798
    9	3636812
    10	2769109
    11	770978
Skipping balancing since max unbalance 0.0339446952566 is less than allowable 0.2

Shell refinement iteration 27
----------------------------

Marked for refinement due to distance to explicit features : 0 cells.
Marked for refinement due to refinement shells             : 86 cells.
Determined cells to refine in = 1.95 s
Selected for internal refinement : 269 cells (out of 9529707)
Edge intersection testing:
    Number of edges             : 30323638
    Number of edges to retest   : 14544
    Number of intersected edges : 1790486
Refined mesh in = 7.72 s
After refinement shell refinement iteration 27 : cells:9531590  faces:30323638  points:11238235  unbalance:0.0341355429682
Cells per refinement level:
    0	5898
    1	5177
    2	16049
    3	99019
    4	10499
    5	241615
    6	44071
    7	961592
    8	969772
    9	3636907
    10	2770013
    11	770978
Skipping balancing since max unbalance 0.0341355429682 is less than allowable 0.2

Shell refinement iteration 28
----------------------------

Marked for refinement due to distance to explicit features : 0 cells.
Marked for refinement due to refinement shells             : 72 cells.
Determined cells to refine in = 1.82 s
Selected for internal refinement : 248 cells (out of 9531590)
Edge intersection testing:
    Number of edges             : 30329206
    Number of edges to retest   : 13782
    Number of intersected edges : 1790590
Refined mesh in = 7.6 s
After refinement shell refinement iteration 28 : cells:9533326  faces:30329206  points:11240331  unbalance:0.0343114249948
Cells per refinement level:
    0	5898
    1	5177
    2	16049
    3	99006
    4	10566
    5	241851
    6	44551
    7	961592
    8	969756
    9	3636913
    10	2770989
    11	770978
Skipping balancing since max unbalance 0.0343114249948 is less than allowable 0.2

Shell refinement iteration 29
----------------------------

Marked for refinement due to distance to explicit features : 0 cells.
Marked for refinement due to refinement shells             : 84 cells.
Determined cells to refine in = 1.77 s
Selected for internal refinement : 267 cells (out of 9533326)
Edge intersection testing:
    Number of edges             : 30335200
    Number of edges to retest   : 14487
    Number of intersected edges : 1790697
Refined mesh in = 7.33 s
After refinement shell refinement iteration 29 : cells:9535195  faces:30335200  points:11242589  unbalance:0.0345007102634
Cells per refinement level:
    0	5898
    1	5177
    2	16049
    3	98994
    4	10622
    5	242099
    6	45127
    7	961590
    8	969756
    9	3636916
    10	2771989
    11	770978
Skipping balancing since max unbalance 0.0345007102634 is less than allowable 0.2

Shell refinement iteration 30
----------------------------

Marked for refinement due to distance to explicit features : 0 cells.
Marked for refinement due to refinement shells             : 95 cells.
Determined cells to refine in = 1.77 s
Selected for internal refinement : 275 cells (out of 9535195)
Edge intersection testing:
    Number of edges             : 30341374
    Number of edges to retest   : 14315
    Number of intersected edges : 1790787
Refined mesh in = 7.28 s
After refinement shell refinement iteration 30 : cells:9537120  faces:30341374  points:11244914  unbalance:0.0346955894442
Cells per refinement level:
    0	5898
    1	5177
    2	16049
    3	98978
    4	10703
    5	242395
    6	45767
    7	961589
    8	969756
    9	3636857
    10	2772973
    11	770978
Skipping balancing since max unbalance 0.0346955894442 is less than allowable 0.2

Shell refinement iteration 31
----------------------------

Marked for refinement due to distance to explicit features : 0 cells.
Marked for refinement due to refinement shells             : 93 cells.
Determined cells to refine in = 1.71 s
Selected for internal refinement : 244 cells (out of 9537120)
Edge intersection testing:
    Number of edges             : 30346870
    Number of edges to retest   : 12838
    Number of intersected edges : 1790873
Refined mesh in = 7.48 s
After refinement shell refinement iteration 31 : cells:9538828  faces:30346870  points:11246992  unbalance:0.0348684345708
Cells per refinement level:
    0	5898
    1	5177
    2	16049
    3	98967
    4	10754
    5	242607
    6	46439
    7	961589
    8	969748
    9	3636817
    10	2773805
    11	770978
Skipping balancing since max unbalance 0.0348684345708 is less than allowable 0.2

Shell refinement iteration 32
----------------------------

Marked for refinement due to distance to explicit features : 0 cells.
Marked for refinement due to refinement shells             : 61 cells.
Determined cells to refine in = 1.71 s
Selected for internal refinement : 192 cells (out of 9538828)
Edge intersection testing:
    Number of edges             : 30351160
    Number of edges to retest   : 10679
    Number of intersected edges : 1790950
Refined mesh in = 7.48 s
After refinement shell refinement iteration 32 : cells:9540172  faces:30351160  points:11248596  unbalance:0.03500440034
Cells per refinement level:
    0	5898
    1	5177
    2	16049
    3	98958
    4	10794
    5	242815
    6	46823
    7	961589
    8	969742
    9	3636768
    10	2774581
    11	770978
Skipping balancing since max unbalance 0.03500440034 is less than allowable 0.2

Shell refinement iteration 33
----------------------------

Marked for refinement due to distance to explicit features : 0 cells.
Marked for refinement due to refinement shells             : 81 cells.
Determined cells to refine in = 1.83 s
Selected for internal refinement : 235 cells (out of 9540172)
Edge intersection testing:
    Number of edges             : 30356464
    Number of edges to retest   : 12269
    Number of intersected edges : 1791043
Refined mesh in = 7.58 s
After refinement shell refinement iteration 33 : cells:9541817  faces:30356464  points:11250615  unbalance:0.0351707646458
Cells per refinement level:
    0	5898
    1	5177
    2	16049
    3	98945
    4	10858
    5	243063
    6	47399
    7	961588
    8	969741
    9	3636740
    10	2775381
    11	770978
Skipping balancing since max unbalance 0.0351707646458 is less than allowable 0.2

Shell refinement iteration 34
----------------------------

Marked for refinement due to distance to explicit features : 0 cells.
Marked for refinement due to refinement shells             : 85 cells.
Determined cells to refine in = 1.76 s
Selected for internal refinement : 236 cells (out of 9541817)
Edge intersection testing:
    Number of edges             : 30361801
    Number of edges to retest   : 12129
    Number of intersected edges : 1791119
Refined mesh in = 7.05 s
After refinement shell refinement iteration 34 : cells:9543469  faces:30361801  points:11252655  unbalance:0.035337779166
Cells per refinement level:
    0	5898
    1	5177
    2	16049
    3	98928
    4	10948
    5	243359
    6	47975
    7	961587
    8	969743
    9	3636694
    10	2776133
    11	770978
Skipping balancing since max unbalance 0.035337779166 is less than allowable 0.2

Shell refinement iteration 35
----------------------------

Marked for refinement due to distance to explicit features : 0 cells.
Marked for refinement due to refinement shells             : 93 cells.
Determined cells to refine in = 1.75 s
Selected for internal refinement : 239 cells (out of 9543469)
Edge intersection testing:
    Number of edges             : 30367183
    Number of edges to retest   : 12387
    Number of intersected edges : 1791201
Refined mesh in = 7.28 s
After refinement shell refinement iteration 35 : cells:9545142  faces:30367183  points:11254691  unbalance:0.0355068578341
Cells per refinement level:
    0	5898
    1	5177
    2	16049
    3	98914
    4	11017
    5	243623
    6	48615
    7	961587
    8	969735
    9	3636664
    10	2776885
    11	770978
Skipping balancing since max unbalance 0.0355068578341 is less than allowable 0.2

Shell refinement iteration 36
----------------------------

Marked for refinement due to distance to explicit features : 0 cells.
Marked for refinement due to refinement shells             : 92 cells.
Determined cells to refine in = 1.74 s
Selected for internal refinement : 228 cells (out of 9545142)
Edge intersection testing:
    Number of edges             : 30372331
    Number of edges to retest   : 11695
    Number of intersected edges : 1791275
Refined mesh in = 7.18 s
After refinement shell refinement iteration 36 : cells:9546738  faces:30372331  points:11256645  unbalance:0.0356680994074
Cells per refinement level:
    0	5898
    1	5177
    2	16049
    3	98903
    4	11065
    5	243863
    6	49255
    7	961587
    8	969729
    9	3636621
    10	2777613
    11	770978
Skipping balancing since max unbalance 0.0356680994074 is less than allowable 0.2

Shell refinement iteration 37
----------------------------

Marked for refinement due to distance to explicit features : 0 cells.
Marked for refinement due to refinement shells             : 82 cells.
Determined cells to refine in = 1.92 s
Selected for internal refinement : 223 cells (out of 9546738)
Edge intersection testing:
    Number of edges             : 30377368
    Number of edges to retest   : 11854
    Number of intersected edges : 1791353
Refined mesh in = 7.03 s
After refinement shell refinement iteration 37 : cells:9548299  faces:30377368  points:11258566  unbalance:0.0358257528383
Cells per refinement level:
    0	5898
    1	5177
    2	16049
    3	98890
    4	11131
    5	244095
    6	49831
    7	961586
    8	969730
    9	3636585
    10	2778349
    11	770978
Skipping balancing since max unbalance 0.0358257528383 is less than allowable 0.2

Shell refinement iteration 38
----------------------------

Marked for refinement due to distance to explicit features : 0 cells.
Marked for refinement due to refinement shells             : 72 cells.
Determined cells to refine in = 1.79 s
Selected for internal refinement : 206 cells (out of 9548299)
Edge intersection testing:
    Number of edges             : 30382018
    Number of edges to retest   : 10744
    Number of intersected edges : 1791425
Refined mesh in = 7.43 s
After refinement shell refinement iteration 38 : cells:9549741  faces:30382018  points:11260336  unbalance:0.03597134205
Cells per refinement level:
    0	5898
    1	5177
    2	16049
    3	98875
    4	11210
    5	244363
    6	50311
    7	961585
    8	969733
    9	3636541
    10	2779021
    11	770978
Skipping balancing since max unbalance 0.03597134205 is less than allowable 0.2

Shell refinement iteration 39
----------------------------

Marked for refinement due to distance to explicit features : 0 cells.
Marked for refinement due to refinement shells             : 101 cells.
Determined cells to refine in = 1.77 s
Selected for internal refinement : 229 cells (out of 9549741)
Edge intersection testing:
    Number of edges             : 30387217
    Number of edges to retest   : 11396
    Number of intersected edges : 1791493
Refined mesh in = 7.79 s
After refinement shell refinement iteration 39 : cells:9551344  faces:30387217  points:11262331  unbalance:0.0361331347714
Cells per refinement level:
    0	5898
    1	5177
    2	16049
    3	98863
    4	11264
    5	244611
    6	51015
    7	961585
    8	969727
    9	3636508
    10	2779669
    11	770978
Skipping balancing since max unbalance 0.0361331347714 is less than allowable 0.2

Shell refinement iteration 40
----------------------------

Marked for refinement due to distance to explicit features : 0 cells.
Marked for refinement due to refinement shells             : 76 cells.
Determined cells to refine in = 1.87 s
Selected for internal refinement : 200 cells (out of 9551344)
Edge intersection testing:
    Number of edges             : 30391744
    Number of edges to retest   : 10428
    Number of intersected edges : 1791561
Refined mesh in = 7.39 s
After refinement shell refinement iteration 40 : cells:9552744  faces:30391744  points:11264062  unbalance:0.036274394038
Cells per refinement level:
    0	5898
    1	5177
    2	16049
    3	98850
    4	11332
    5	244835
    6	51527
    7	961585
    8	969722
    9	3636466
    10	2780325
    11	770978
Skipping balancing since max unbalance 0.036274394038 is less than allowable 0.2

Shell refinement iteration 41
----------------------------

Marked for refinement due to distance to explicit features : 0 cells.
Marked for refinement due to refinement shells             : 71 cells.
Determined cells to refine in = 1.78 s
Selected for internal refinement : 195 cells (out of 9552744)
Edge intersection testing:
    Number of edges             : 30396157
    Number of edges to retest   : 10201
    Number of intersected edges : 1791620
Refined mesh in = 7.3 s
After refinement shell refinement iteration 41 : cells:9554109  faces:30396157  points:11265747  unbalance:0.0364120819639
Cells per refinement level:
    0	5898
    1	5177
    2	16049
    3	98837
    4	11399
    5	245067
    6	52039
    7	961584
    8	969724
    9	3636440
    10	2780917
    11	770978
Skipping balancing since max unbalance 0.0364120819639 is less than allowable 0.2

Shell refinement iteration 42
----------------------------

Marked for refinement due to distance to explicit features : 0 cells.
Marked for refinement due to refinement shells             : 77 cells.
Determined cells to refine in = 1.73 s
Selected for internal refinement : 195 cells (out of 9554109)
Edge intersection testing:
    Number of edges             : 30400591
    Number of edges to retest   : 10029
    Number of intersected edges : 1791679
Refined mesh in = 6.98 s
After refinement shell refinement iteration 42 : cells:9555474  faces:30400591  points:11267457  unbalance:0.0365497305524
Cells per refinement level:
    0	5898
    1	5177
    2	16049
    3	98828
    4	11433
    5	245303
    6	52583
    7	961583
    8	969727
    9	3636406
    10	2781509
    11	770978
Skipping balancing since max unbalance 0.0365497305524 is less than allowable 0.2

Shell refinement iteration 43
----------------------------

Marked for refinement due to distance to explicit features : 0 cells.
Marked for refinement due to refinement shells             : 80 cells.
Determined cells to refine in = 1.83 s
Selected for internal refinement : 201 cells (out of 9555474)
Edge intersection testing:
    Number of edges             : 30405145
    Number of edges to retest   : 10226
    Number of intersected edges : 1791742
Refined mesh in = 7.33 s
After refinement shell refinement iteration 43 : cells:9556881  faces:30405145  points:11269199  unbalance:0.0370571737788
Cells per refinement level:
    0	5898
    1	5177
    2	16049
    3	98816
    4	11488
    5	245563
    6	53127
    7	961583
    8	969721
    9	3636380
    10	2782101
    11	770978
Skipping balancing since max unbalance 0.0370571737788 is less than allowable 0.2

Shell refinement iteration 44
----------------------------

Marked for refinement due to distance to explicit features : 0 cells.
Marked for refinement due to refinement shells             : 93 cells.
Determined cells to refine in = 1.73 s
Selected for internal refinement : 211 cells (out of 9556881)
Edge intersection testing:
    Number of edges             : 30409948
    Number of edges to retest   : 10544
    Number of intersected edges : 1791805
Refined mesh in = 7.11 s
After refinement shell refinement iteration 44 : cells:9558358  faces:30409948  points:11271048  unbalance:0.0377171476523
Cells per refinement level:
    0	5898
    1	5177
    2	16049
    3	98803
    4	11552
    5	245803
    6	53767
    7	961583
    8	969717
    9	3636338
    10	2782693
    11	770978
Skipping balancing since max unbalance 0.0377171476523 is less than allowable 0.2

Shell refinement iteration 45
----------------------------

Marked for refinement due to distance to explicit features : 0 cells.
Marked for refinement due to refinement shells             : 85 cells.
Determined cells to refine in = 1.76 s
Selected for internal refinement : 219 cells (out of 9558358)
Edge intersection testing:
    Number of edges             : 30414937
    Number of edges to retest   : 10843
    Number of intersected edges : 1791868
Refined mesh in = 7.28 s
After refinement shell refinement iteration 45 : cells:9559891  faces:30414937  points:11272978  unbalance:0.0383942662108
Cells per refinement level:
    0	5898
    1	5177
    2	16049
    3	98786
    4	11639
    5	246123
    6	54343
    7	961582
    8	969719
    9	3636312
    10	2783285
    11	770978
Skipping balancing since max unbalance 0.0383942662108 is less than allowable 0.2

Shell refinement iteration 46
----------------------------

Marked for refinement due to distance to explicit features : 0 cells.
Marked for refinement due to refinement shells             : 102 cells.
Determined cells to refine in = 1.76 s
Selected for internal refinement : 215 cells (out of 9559891)
Edge intersection testing:
    Number of edges             : 30419812
    Number of edges to retest   : 10764
    Number of intersected edges : 1791924
Refined mesh in = 7.81 s
After refinement shell refinement iteration 46 : cells:9561396  faces:30419812  points:11274838  unbalance:0.0390800673876
Cells per refinement level:
    0	5898
    1	5177
    2	16049
    3	98779
    4	11657
    5	246335
    6	55079
    7	961581
    8	969722
    9	3636280
    10	2783861
    11	770978
Skipping balancing since max unbalance 0.0390800673876 is less than allowable 0.2

Shell refinement iteration 47
----------------------------

Marked for refinement due to distance to explicit features : 0 cells.
Marked for refinement due to refinement shells             : 63 cells.
Determined cells to refine in = 1.84 s
Selected for internal refinement : 187 cells (out of 9561396)
Edge intersection testing:
    Number of edges             : 30424060
    Number of edges to retest   : 9653
    Number of intersected edges : 1791995
Refined mesh in = 7.66 s
After refinement shell refinement iteration 47 : cells:9562705  faces:30424060  points:11276472  unbalance:0.0395585767835
Cells per refinement level:
    0	5898
    1	5177
    2	16049
    3	98765
    4	11735
    5	246555
    6	55495
    7	961581
    8	969716
    9	3636247
    10	2784509
    11	770978
Skipping balancing since max unbalance 0.0395585767835 is less than allowable 0.2

Shell refinement iteration 48
----------------------------

Marked for refinement due to distance to explicit features : 0 cells.
Marked for refinement due to refinement shells             : 88 cells.
Determined cells to refine in = 1.78 s
Selected for internal refinement : 217 cells (out of 9562705)
Edge intersection testing:
    Number of edges             : 30429007
    Number of edges to retest   : 10482
    Number of intersected edges : 1792057
Refined mesh in = 8.03 s
After refinement shell refinement iteration 48 : cells:9564224  faces:30429007  points:11278387  unbalance:0.0402249048119
Cells per refinement level:
    0	5898
    1	5177
    2	16049
    3	98748
    4	11825
    5	246847
    6	56103
    7	961581
    8	969711
    9	3636214
    10	2785093
    11	770978
Skipping balancing since max unbalance 0.0402249048119 is less than allowable 0.2

Shell refinement iteration 49
----------------------------

Marked for refinement due to distance to explicit features : 0 cells.
Marked for refinement due to refinement shells             : 92 cells.
Determined cells to refine in = 1.83 s
Selected for internal refinement : 216 cells (out of 9564224)
Edge intersection testing:
    Number of edges             : 30433921
    Number of edges to retest   : 10646
    Number of intersected edges : 1792117
Refined mesh in = 7.54 s
After refinement shell refinement iteration 49 : cells:9565736  faces:30433921  points:11280279  unbalance:0.0408566575536
Cells per refinement level:
    0	5898
    1	5177
    2	16049
    3	98736
    4	11881
    5	247083
    6	56775
    7	961580
    8	969713
    9	3636189
    10	2785677
    11	770978
Skipping balancing since max unbalance 0.0408566575536 is less than allowable 0.2

Shell refinement iteration 50
----------------------------

Marked for refinement due to distance to explicit features : 0 cells.
Marked for refinement due to refinement shells             : 66 cells.
Determined cells to refine in = 1.93 s
Selected for internal refinement : 186 cells (out of 9565736)
Edge intersection testing:
    Number of edges             : 30438145
    Number of edges to retest   : 9733
    Number of intersected edges : 1792191
Refined mesh in = 7.56 s
After refinement shell refinement iteration 50 : cells:9567038  faces:30438145  points:11281906  unbalance:0.0412886412702
Cells per refinement level:
    0	5898
    1	5177
    2	16049
    3	98727
    4	11924
    5	247255
    6	57255
    7	961579
    8	969716
    9	3636147
    10	2786333
    11	770978
Skipping balancing since max unbalance 0.0412886412702 is less than allowable 0.2

Shell refinement iteration 51
----------------------------

Marked for refinement due to distance to explicit features : 0 cells.
Marked for refinement due to refinement shells             : 65 cells.
Determined cells to refine in = 1.78 s
Selected for internal refinement : 188 cells (out of 9567038)
Edge intersection testing:
    Number of edges             : 30442426
    Number of edges to retest   : 9611
    Number of intersected edges : 1792256
Refined mesh in = 7.4 s
After refinement shell refinement iteration 51 : cells:9568354  faces:30442426  points:11283561  unbalance:0.0417892147385
Cells per refinement level:
    0	5898
    1	5177
    2	16049
    3	98709
    4	12024
    5	247559
    6	57639
    7	961579
    8	969711
    9	3636114
    10	2786917
    11	770978
Skipping balancing since max unbalance 0.0417892147385 is less than allowable 0.2

Shell refinement iteration 52
----------------------------

Marked for refinement due to distance to explicit features : 0 cells.
Marked for refinement due to refinement shells             : 115 cells.
Determined cells to refine in = 1.74 s
Selected for internal refinement : 231 cells (out of 9568354)
Edge intersection testing:
    Number of edges             : 30447697
    Number of edges to retest   : 11028
    Number of intersected edges : 1792319
Refined mesh in = 7.45 s
After refinement shell refinement iteration 52 : cells:9569971  faces:30447697  points:11285596  unbalance:0.0425026366329
Cells per refinement level:
    0	5898
    1	5177
    2	16049
    3	98701
    4	12044
    5	247811
    6	58439
    7	961579
    8	969706
    9	3636080
    10	2787509
    11	770978
Skipping balancing since max unbalance 0.0425026366329 is less than allowable 0.2

Shell refinement iteration 53
----------------------------

Marked for refinement due to distance to explicit features : 0 cells.
Marked for refinement due to refinement shells             : 80 cells.
Determined cells to refine in = 1.72 s
Selected for internal refinement : 198 cells (out of 9569971)
Edge intersection testing:
    Number of edges             : 30452215
    Number of edges to retest   : 9975
    Number of intersected edges : 1792382
Refined mesh in = 7.19 s
After refinement shell refinement iteration 53 : cells:9571357  faces:30452215  points:11287347  unbalance:0.0430420681205
Cells per refinement level:
    0	5898
    1	5177
    2	16049
    3	98691
    4	12088
    5	248027
    6	59015
    7	961578
    8	969709
    9	3636046
    10	2788101
    11	770978
Skipping balancing since max unbalance 0.0430420681205 is less than allowable 0.2

Shell refinement iteration 54
----------------------------

Marked for refinement due to distance to explicit features : 0 cells.
Marked for refinement due to refinement shells             : 69 cells.
Determined cells to refine in = 1.8 s
Selected for internal refinement : 193 cells (out of 9571357)
[...]
Added 2630054 out of 2733284 cells (96.2232245167%).


Layer addition iteration 49
--------------------------

Determining displacement for added points according to pointNormal ...
Detected 0 points with point normal pointing through faces.
Reset displacement at 0 points to average of surrounding points.

displacementMedialAxis : Smoothing using Medial Axis ...
displacementMedialAxis : Reducing layer thickness at 108173 nodes where thickness to medial axis distance is large 
displacementMedialAxis : Removing isolated regions ...
- if partially extruded faces make angle < 90
- if exclusively surrounded by non-extruded faces
displacementMedialAxis : Number of isolated points extrusion stopped : 11
fieldSmoother : Smoothing field ...
    Iteration 0   residual 2.42834172889e-05
displacementMedialAxis : Moving mesh ...
displacementMedialAxis : Iteration 0
Moving mesh using displacement scaling : min:1  max:1
Checking faces in error :
    non-orthogonality > 65  degrees                        : 1446
    faces with face pyramid volume < 1e-13                 : 210
    faces with face-decomposition tet quality < 1e-30      : 389
    faces with concavity > 80  degrees                     : 0
    faces with skewness > 4   (internal) or 20  (boundary) : 0
    faces with interpolation weights (0..1)  < 0.05        : 8
    faces with volume ratio of neighbour cells < 0.01      : 1
    faces with face twist < 0.05                           : 24
    faces on cells with determinant < 0.001                : 86
displacementMedialAxis : Iteration 1
Moving mesh using displacement scaling : min:0.75  max:1
Checking faces in error :
    non-orthogonality > 65  degrees                        : 10
    faces with face pyramid volume < 1e-13                 : 1
    faces with face-decomposition tet quality < 1e-30      : 100
    faces with concavity > 80  degrees                     : 0
    faces with skewness > 4   (internal) or 20  (boundary) : 0
    faces with interpolation weights (0..1)  < 0.05        : 0
    faces with volume ratio of neighbour cells < 0.01      : 0
    faces with face twist < 0.05                           : 1
    faces on cells with determinant < 0.001                : 0
displacementMedialAxis : Iteration 2
Moving mesh using displacement scaling : min:0.5625  max:1
Checking faces in error :
    non-orthogonality > 65  degrees                        : 1
    faces with face pyramid volume < 1e-13                 : 0
    faces with face-decomposition tet quality < 1e-30      : 62
    faces with concavity > 80  degrees                     : 0
    faces with skewness > 4   (internal) or 20  (boundary) : 0
    faces with interpolation weights (0..1)  < 0.05        : 0
    faces with volume ratio of neighbour cells < 0.01      : 0
    faces with face twist < 0.05                           : 2
    faces on cells with determinant < 0.001                : 0
displacementMedialAxis : Iteration 3
Moving mesh using displacement scaling : min:0.421875  max:1
Checking faces in error :
    non-orthogonality > 65  degrees                        : 0
    faces with face pyramid volume < 1e-13                 : 0
    faces with face-decomposition tet quality < 1e-30      : 39
    faces with concavity > 80  degrees                     : 0
    faces with skewness > 4   (internal) or 20  (boundary) : 0
    faces with interpolation weights (0..1)  < 0.05        : 0
    faces with volume ratio of neighbour cells < 0.01      : 0
    faces with face twist < 0.05                           : 0
    faces on cells with determinant < 0.001                : 0
displacementMedialAxis : Iteration 4
Moving mesh using displacement scaling : min:0.31640625  max:1
Checking faces in error :
    non-orthogonality > 65  degrees                        : 0
    faces with face pyramid volume < 1e-13                 : 0
    faces with face-decomposition tet quality < 1e-30      : 24
    faces with concavity > 80  degrees                     : 0
    faces with skewness > 4   (internal) or 20  (boundary) : 0
    faces with interpolation weights (0..1)  < 0.05        : 0
    faces with volume ratio of neighbour cells < 0.01      : 0
    faces with face twist < 0.05                           : 0
    faces on cells with determinant < 0.001                : 0
displacementMedialAxis : Iteration 5
Moving mesh using displacement scaling : min:0.2373046875  max:1
Checking faces in error :
    non-orthogonality > 65  degrees                        : 0
    faces with face pyramid volume < 1e-13                 : 0
    faces with face-decomposition tet quality < 1e-30      : 17
    faces with concavity > 80  degrees                     : 0
    faces with skewness > 4   (internal) or 20  (boundary) : 0
    faces with interpolation weights (0..1)  < 0.05        : 0
    faces with volume ratio of neighbour cells < 0.01      : 0
    faces with face twist < 0.05                           : 0
    faces on cells with determinant < 0.001                : 0
displacementMedialAxis : Iteration 6
Moving mesh using displacement scaling : min:0.177978515625  max:1
Checking faces in error :
    non-orthogonality > 65  degrees                        : 0
    faces with face pyramid volume < 1e-13                 : 0
    faces with face-decomposition tet quality < 1e-30      : 12
    faces with concavity > 80  degrees                     : 0
    faces with skewness > 4   (internal) or 20  (boundary) : 0
    faces with interpolation weights (0..1)  < 0.05        : 0
    faces with volume ratio of neighbour cells < 0.01      : 0
    faces with face twist < 0.05                           : 0
    faces on cells with determinant < 0.001                : 0
displacementMedialAxis : Iteration 7
Moving mesh using displacement scaling : min:0.133483886719  max:1
Checking faces in error :
    non-orthogonality > 65  degrees                        : 0
    faces with face pyramid volume < 1e-13                 : 0
    faces with face-decomposition tet quality < 1e-30      : 12
    faces with concavity > 80  degrees                     : 0
    faces with skewness > 4   (internal) or 20  (boundary) : 0
    faces with interpolation weights (0..1)  < 0.05        : 0
    faces with volume ratio of neighbour cells < 0.01      : 0
    faces with face twist < 0.05                           : 0
    faces on cells with determinant < 0.001                : 0
displacementMedialAxis : Iteration 8
Moving mesh using displacement scaling : min:0.100112915039  max:1
Checking faces in error :
    non-orthogonality > 65  degrees                        : 0
    faces with face pyramid volume < 1e-13                 : 0
    faces with face-decomposition tet quality < 1e-30      : 9
    faces with concavity > 80  degrees                     : 0
    faces with skewness > 4   (internal) or 20  (boundary) : 0
    faces with interpolation weights (0..1)  < 0.05        : 0
    faces with volume ratio of neighbour cells < 0.01      : 0
    faces with face twist < 0.05                           : 0
    faces on cells with determinant < 0.001                : 0
displacementMedialAxis : Iteration 9
Moving mesh using displacement scaling : min:0.0750846862793  max:1
Checking faces in error :
    non-orthogonality > 65  degrees                        : 0
    faces with face pyramid volume < 1e-13                 : 0
    faces with face-decomposition tet quality < 1e-30      : 6
    faces with concavity > 80  degrees                     : 0
    faces with skewness > 4   (internal) or 20  (boundary) : 0
    faces with interpolation weights (0..1)  < 0.05        : 0
    faces with volume ratio of neighbour cells < 0.01      : 0
    faces with face twist < 0.05                           : 0
    faces on cells with determinant < 0.001                : 0
displacementMedialAxis : Iteration 10
Moving mesh using displacement scaling : min:0.0563135147095  max:1
Checking faces in error :
    non-orthogonality > 65  degrees                        : 0
    faces with face pyramid volume < 1e-13                 : 0
    faces with face-decomposition tet quality < 1e-30      : 6
    faces with concavity > 80  degrees                     : 0
    faces with skewness > 4   (internal) or 20  (boundary) : 0
    faces with interpolation weights (0..1)  < 0.05        : 0
    faces with volume ratio of neighbour cells < 0.01      : 0
    faces with face twist < 0.05                           : 0
    faces on cells with determinant < 0.001                : 0
displacementMedialAxis : Iteration 11
Moving mesh using displacement scaling : min:0.0422351360321  max:1
Checking faces in error :
    non-orthogonality > 65  degrees                        : 0
    faces with face pyramid volume < 1e-13                 : 0
    faces with face-decomposition tet quality < 1e-30      : 5
    faces with concavity > 80  degrees                     : 0
    faces with skewness > 4   (internal) or 20  (boundary) : 0
    faces with interpolation weights (0..1)  < 0.05        : 0
    faces with volume ratio of neighbour cells < 0.01      : 0
    faces with face twist < 0.05                           : 0
    faces on cells with determinant < 0.001                : 0
displacementMedialAxis : Iteration 12
Moving mesh using displacement scaling : min:0.0316763520241  max:1
Checking faces in error :
    non-orthogonality > 65  degrees                        : 0
    faces with face pyramid volume < 1e-13                 : 0
    faces with face-decomposition tet quality < 1e-30      : 5
    faces with concavity > 80  degrees                     : 0
    faces with skewness > 4   (internal) or 20  (boundary) : 0
    faces with interpolation weights (0..1)  < 0.05        : 0
    faces with volume ratio of neighbour cells < 0.01      : 0
    faces with face twist < 0.05                           : 0
    faces on cells with determinant < 0.001                : 0
displacementMedialAxis : Iteration 13
Moving mesh using displacement scaling : min:0.0237572640181  max:1
Checking faces in error :
    non-orthogonality > 65  degrees                        : 0
    faces with face pyramid volume < 1e-13                 : 0
    faces with face-decomposition tet quality < 1e-30      : 3
    faces with concavity > 80  degrees                     : 0
    faces with skewness > 4   (internal) or 20  (boundary) : 0
    faces with interpolation weights (0..1)  < 0.05        : 0
    faces with volume ratio of neighbour cells < 0.01      : 0
    faces with face twist < 0.05                           : 0
    faces on cells with determinant < 0.001                : 0
displacementMedialAxis : Iteration 14
Moving mesh using displacement scaling : min:0.0178179480135  max:1
Checking faces in error :
    non-orthogonality > 65  degrees                        : 0
    faces with face pyramid volume < 1e-13                 : 0
    faces with face-decomposition tet quality < 1e-30      : 3
    faces with concavity > 80  degrees                     : 0
    faces with skewness > 4   (internal) or 20  (boundary) : 0
    faces with interpolation weights (0..1)  < 0.05        : 0
    faces with volume ratio of neighbour cells < 0.01      : 0
    faces with face twist < 0.05                           : 0
    faces on cells with determinant < 0.001                : 0
displacementMedialAxis : Iteration 15
Moving mesh using displacement scaling : min:0.0133634610102  max:1
Checking faces in error :
    non-orthogonality > 65  degrees                        : 0
    faces with face pyramid volume < 1e-13                 : 0
    faces with face-decomposition tet quality < 1e-30      : 2
    faces with concavity > 80  degrees                     : 0
    faces with skewness > 4   (internal) or 20  (boundary) : 0
    faces with interpolation weights (0..1)  < 0.05        : 0
    faces with volume ratio of neighbour cells < 0.01      : 0
    faces with face twist < 0.05                           : 0
    faces on cells with determinant < 0.001                : 0
displacementMedialAxis : Iteration 16
Moving mesh using displacement scaling : min:0.0100225957576  max:1
Checking faces in error :
    non-orthogonality > 65  degrees                        : 0
    faces with face pyramid volume < 1e-13                 : 0
    faces with face-decomposition tet quality < 1e-30      : 2
    faces with concavity > 80  degrees                     : 0
    faces with skewness > 4   (internal) or 20  (boundary) : 0
    faces with interpolation weights (0..1)  < 0.05        : 0
    faces with volume ratio of neighbour cells < 0.01      : 0
    faces with face twist < 0.05                           : 0
    faces on cells with determinant < 0.001                : 0
displacementMedialAxis : Iteration 17
Moving mesh using displacement scaling : min:0.00751694681821  max:1
Checking faces in error :
    non-orthogonality > 65  degrees                        : 0
    faces with face pyramid volume < 1e-13                 : 0
    faces with face-decomposition tet quality < 1e-30      : 2
    faces with concavity > 80  degrees                     : 0
    faces with skewness > 4   (internal) or 20  (boundary) : 0
    faces with interpolation weights (0..1)  < 0.05        : 0
    faces with volume ratio of neighbour cells < 0.01      : 0
    faces with face twist < 0.05                           : 0
    faces on cells with determinant < 0.001                : 0
displacementMedialAxis : Iteration 18
Moving mesh using displacement scaling : min:0.00563771011366  max:1
Checking faces in error :
    non-orthogonality > 65  degrees                        : 0
    faces with face pyramid volume < 1e-13                 : 0
    faces with face-decomposition tet quality < 1e-30      : 2
    faces with concavity > 80  degrees                     : 0
    faces with skewness > 4   (internal) or 20  (boundary) : 0
    faces with interpolation weights (0..1)  < 0.05        : 0
    faces with volume ratio of neighbour cells < 0.01      : 0
    faces with face twist < 0.05                           : 0
    faces on cells with determinant < 0.001                : 0
displacementMedialAxis : Iteration 19
Moving mesh using displacement scaling : min:0.00422828258525  max:1
Checking faces in error :
    non-orthogonality > 65  degrees                        : 0
    faces with face pyramid volume < 1e-13                 : 0
    faces with face-decomposition tet quality < 1e-30      : 2
    faces with concavity > 80  degrees                     : 0
    faces with skewness > 4   (internal) or 20  (boundary) : 0
    faces with interpolation weights (0..1)  < 0.05        : 0
    faces with volume ratio of neighbour cells < 0.01      : 0
    faces with face twist < 0.05                           : 0
    faces on cells with determinant < 0.001                : 0
displacementMedialAxis : Iteration 20
displacementMedialAxis : Displacement scaling for error reduction set to 0.
Moving mesh using displacement scaling : min:0.00317121193893  max:1
Checking faces in error :
    non-orthogonality > 65  degrees                        : 0
    faces with face pyramid volume < 1e-13                 : 0
    faces with face-decomposition tet quality < 1e-30      : 2
    faces with concavity > 80  degrees                     : 0
    faces with skewness > 4   (internal) or 20  (boundary) : 0
    faces with interpolation weights (0..1)  < 0.05        : 0
    faces with volume ratio of neighbour cells < 0.01      : 0
    faces with face twist < 0.05                           : 0
    faces on cells with determinant < 0.001                : 0
displacementMedialAxis : Iteration 21
Moving mesh using displacement scaling : min:0  max:1
Checking faces in error :
    non-orthogonality > 65  degrees                        : 0
    faces with face pyramid volume < 1e-13                 : 0
    faces with face-decomposition tet quality < 1e-30      : 0
    faces with concavity > 80  degrees                     : 0
    faces with skewness > 4   (internal) or 20  (boundary) : 0
    faces with interpolation weights (0..1)  < 0.05        : 0
    faces with volume ratio of neighbour cells < 0.01      : 0
    faces with face twist < 0.05                           : 0
    faces on cells with determinant < 0.001                : 0
displacementMedialAxis : Successfully moved mesh
displacementMedialAxis : Finished moving mesh ...
truncateDisplacement : Unextruded 0 faces due to non-consecutive vertices being extruded.
truncateDisplacement : Unextruded 0 faces due to stringed edges with inconsistent extrusion.

Setting up information for layer truncation ...
Detected 0 baffles across faceZones of type internal


Checking mesh with layer ...
Checking faces in error :
    non-orthogonality > 65  degrees                        : 0
    faces with face pyramid volume < 1e-13                 : 0
    faces with face-decomposition tet quality < 1e-30      : 0
    faces with concavity > 80  degrees                     : 0
    faces with skewness > 4   (internal) or 20  (boundary) : 0
    faces with interpolation weights (0..1)  < 0.05        : 9
    faces with volume ratio of neighbour cells < 0.01      : 0
    faces with face twist < 0.05                           : 0
    faces on cells with determinant < 0.001                : 0
Detected 9 illegal faces (concave, zero area or negative cell pyramid volume)
Extruding 1303883 out of 1327836 faces (98.1960874686%). Removed extrusion at 9 faces.
Added 2630014 out of 2733284 cells (96.2217610757%).

Edge intersection testing:
    Number of edges             : 31893637
    Number of edges to retest   : 0
    Number of intersected edges : 3663057
Mesh with layers : cells:10108769  faces:31893637  points:11725135  unbalance:0.04831537846

patch      faces        layers        overall thickness
                    target   mesh     [m]       [%]
-----      -----    -----    ----     ---       ---
Ground     75712    3        2.83     0.0382    81.3    
Bo         144082   2        1.93     0.00335   87.8    
FrBr       5540     2        1.93     0.00263   93.4    
FrSUS      11575    2        1.92     0.00259   89.8    
Front_Tire 54318    2        1.8      0.0014    81      
FW         348835   2        1.93     0.00173   88.5    
RrBr       5382     2        1.87     0.00209   74.2    
RrSUS      15560    2        1.83     0.00239   82.2    
Rear_Tire  55573    2        1.8      0.00135   79.5    
RW         406571   2        1.96     0.00238   92.5    
SW         204688   2        1.94     0.0031    90.5    


Doing final balancing
---------------------

Writing 2630014 added cells to cellSet addedCells
Writing 1326104 faces inside added layer to faceSet layerFaces

Writing fields with layer information:
    nSurfaceLayers    : actual number of layers
    thickness         : overall layer thickness
    thicknessFraction : overall layer thickness (fraction of desired thickness)

Layer mesh : cells:10108769  faces:31893637  points:11725135  unbalance:0.00741939992891
Cells per refinement level:
    0	7239
    1	6281
    2	19812
    3	111654
    4	15452
    5	268921
    6	137759
    7	1012980
    8	1004941
    9	3982362
    10	3037707
    11	503661
Writing mesh to time constant
Wrote mesh in = 16.26 s.
Layers added in = 3422.4 s.
Checking final mesh ...
Checking faces in error :
    non-orthogonality > 65  degrees                        : 0
    faces with face pyramid volume < 1e-13                 : 0
    faces with face-decomposition tet quality < 1e-30      : 0
    faces with concavity > 80  degrees                     : 0
    faces with skewness > 4   (internal) or 20  (boundary) : 0
    faces with interpolation weights (0..1)  < 0.05        : 9
    faces with volume ratio of neighbour cells < 0.01      : 0
    faces with face twist < 0.05                           : 0
    faces on cells with determinant < 0.001                : 0
Finished meshing with 9 illegal faces (concave, zero area or negative cell pyramid volume)
Finished meshing in = 5923.14 s.
End

Finalising parallel run
