/*---------------------------------------------------------------------------*\
| =========                 |                                                 |
| \\      /  F ield         | OpenFOAM: The Open Source CFD Toolbox           |
|  \\    /   O peration     | Version:  2412                                  |
|   \\  /    A nd           | Website:  www.openfoam.com                      |
|    \\/     M anipulation  |                                                 |
\*---------------------------------------------------------------------------*/
Build  : _45e7c4a0-20241224 OPENFOAM=2412 version=2412
Arch   : "LSB;label=32;scalar=64"
Exec   : checkMesh
Date   : Feb 01 2025
Time   : 18:20:28
Host   : MyComputer
PID    : 7688
I/O    : uncollated
Case   : /mnt/d/desktop/OpenFOAM/TasakiModel_Mesh_Heavy
nProcs : 1
trapFpe: Floating point exception trapping enabled (FOAM_SIGFPE).
fileModificationChecking : Monitoring run-time modified files using timeStampMaster (fileModificationSkew 5, maxFileModificationPolls 20)
allowSystemOperations : Allowing user-supplied system call operations

// * * * * * * * * * * * * * * * * * * * * * * * * * * * * * * * * * * * * * //
Create time

Create mesh for time = 0

Check mesh...

Time = 0

Mesh stats 
    points:           11735662
    faces:            31983199
    internal faces:   30603597
    cells:            10148163
    faces per cell:   6.16730298873
    boundary patches: 16
    point zones:      1
    face zones:       0
    cell zones:       0

Overall number of cells of each type:
    hexahedra:     8973015
    prisms:        278157
    wedges:        12587
    pyramids:      65
    tet wedges:    8310
    tetrahedra:    103
    polyhedra:     875926
    Breakdown of polyhedra by number of faces:
        faces   number of cells
            4   34962
            5   36795
            6   156882
            7   135249
            8   33049
            9   356897
           10   861
           11   350
           12   90479
           13   115
           14   178
           15   27999
           16   12
           17   37
           18   2061

Checking topology...
    Boundary definition OK.
    Cell to face addressing OK.
    Point usage OK.
    Upper triangular ordering OK.
    Face vertices OK.
    Number of regions: 1 (OK).

Checking patch topology for multiply connected surfaces...
                   Patch    Faces   Points  Surface topology
                SideWall      910      994  ok (non-closed singly connected)
                Symmetry    49086    52725  ok (non-closed singly connected)
                   inlet      823      925  ok (non-closed singly connected)
                  outlet      247      287  ok (non-closed singly connected)
                  Ground    75712    79064  ok (non-closed singly connected)
                     Sky      700      781  ok (non-closed singly connected)
                      Bo   144082   159086  ok (non-closed singly connected)
                    FrBr     5540     5610      ok (closed singly connected)
                   FrSUS    11575    13435  ok (non-closed singly connected)
              Front_Tire    54318    61406  ok (non-closed singly connected)
                      FW   348835   358323  multiply connected (shared edge)
                    RrBr     5382     5452      ok (closed singly connected)
                   RrSUS    15560    17803  ok (non-closed singly connected)
               Rear_Tire    55573    62677  ok (non-closed singly connected)
                      RW   406571   418126  ok (non-closed singly connected)
                      SW   204688   207904  ok (non-closed singly connected)
                    ".*"  1379602  1436899  multiply connected (shared edge)

Detected 2 bad edges (possibly relevant for finite-area)

Checking faceZone topology for multiply connected surfaces...
    No faceZones found.
  <<Writing 4 conflicting points to set nonManifoldPoints

Checking basic cellZone addressing...
    No cellZones found.

Checking basic pointZone addressing...
               PointZone  PointsBoundingBox
            frozenPoints       0(1e+150 1e+150 1e+150) (-1e+150 -1e+150 -1e+150)

Checking geometry...
    Overall domain bounding box (-16 -16 0) (96 0 16)
    Mesh has 3 geometric (non-empty/wedge) directions (1 1 1)
    Mesh has 3 solution (non-empty) directions (1 1 1)
    Boundary openness (3.3297544018e-18 -7.29403860298e-16 -8.92171667617e-15) OK.
    Max cell openness = 1.04372437418e-15 OK.
    Max aspect ratio = 71.2751384969 OK.
    Minimum face area = 8.89417999346e-09. Maximum face area = 2.61855823399.  Face area magnitudes OK.
    Min volume = 6.12995079771e-12. Max volume = 4.15012670563.  Total volume = 28671.6921019.  Cell volumes OK.
    Mesh non-orthogonality Max: 66.7845364589 average: 9.61589889124
    Non-orthogonality check OK.
    Face pyramids OK.
 ***Max skewness = 5.60370777854, 4 highly skew faces detected which may impair the quality of the results
  <<Writing 4 skew faces to set skewFaces
    Coupled point location match (average 0) OK.

Failed 1 mesh checks.

End

