/*---------------------------------------------------------------------------*\
| =========                 |                                                 |
| \\      /  F ield         | OpenFOAM: The Open Source CFD Toolbox           |
|  \\    /   O peration     | Version:  2412                                  |
|   \\  /    A nd           | Website:  www.openfoam.com                      |
|    \\/     M anipulation  |                                                 |
\*---------------------------------------------------------------------------*/
Build  : _45e7c4a0-20241224 OPENFOAM=2412 version=2412
Arch   : "LSB;label=32;scalar=64"
Exec   : blockMesh
Date   : Feb 01 2025
Time   : 02:01:18
Host   : MyComputer
PID    : 3086
I/O    : uncollated
Case   : /mnt/d/desktop/OpenFOAM/HarfCar_BestPractice_15ms_TasakiModel
nProcs : 1
trapFpe: Floating point exception trapping enabled (FOAM_SIGFPE).
fileModificationChecking : Monitoring run-time modified files using timeStampMaster (fileModificationSkew 5, maxFileModificationPolls 20)
allowSystemOperations : Allowing user-supplied system call operations

// * * * * * * * * * * * * * * * * * * * * * * * * * * * * * * * * * * * * * //
Create time

Creating block mesh from "system/blockMeshDict"
Creating block edges
No non-planar block faces defined
Creating topology blocks

Creating topology patches - from boundary section

Creating block mesh topology

Check topology

	Basic statistics
		Number of internal faces : 0
		Number of boundary faces : 6
		Number of defined boundary faces : 6
		Number of undefined boundary faces : 0
	Checking patch -> block consistency

Creating block offsets
Creating merge list (topological search)...
Deleting polyMesh directory "constant/polyMesh"

Creating polyMesh from blockMesh
Creating patches
Creating cells
Creating points with scale (1 1 1)
    Block 0 cell size :
        i : 1.6 .. 1.6
        j : 1.6 .. 1.6
        k : 1.6 .. 1.6

No patch pairs to merge

Writing polyMesh with 0 cellZones
----------------
Mesh Information
----------------
  boundingBox: (-16 -16 0) (96 0 16)
  nPoints: 8591
  nCells: 7000
  nFaces: 22500
  nInternalFaces: 19500
----------------
Patches
----------------
  patch 0 (start: 19500 size: 700) name: SideWall
  patch 1 (start: 20200 size: 700) name: Symmetry
  patch 2 (start: 20900 size: 100) name: inlet
  patch 3 (start: 21000 size: 100) name: outlet
  patch 4 (start: 21100 size: 700) name: Ground
  patch 5 (start: 21800 size: 700) name: Sky

End

